<?xml version='1.0' encoding='UTF-8'?>
<routes><vType id="car" vClass="passenger" accel="3.0" decel="4.5" length="5.0" maxSpeed="20" color="0,0,255" /><vType id="bus" vClass="bus" accel="2.0" decel="4.0" length="12.0" maxSpeed="15" color="255,165,0" /><vType id="truck" vClass="truck" accel="1.5" decel="4.0" length="8.0" maxSpeed="18" color="0,128,0" /><vType id="ambulance" vClass="emergency" accel="3.5" decel="5.0" length="6.0" maxSpeed="25" color="255,0,0" /><route id="E0_to_E1" edges="E_0 E_1" /><route id="E0_to_S1" edges="E_0 S_1" /><route id="E0_to_N3" edges="E_0 N_3" /><route id="W1_to_N3" edges="W_1 N_3" /><route id="W1_to_W0" edges="W_1 W_0" /><route id="W1_to_S1" edges="W_1 S_1" /><route id="N_to_E1" edges="N E_1" /><route id="N_to_N3" edges="N N_3" /><route id="N_to_W0" edges="N W_0" /><route id="S_to_W0" edges="S W_0" /><route id="S_to_S1" edges="S S_1" /><route id="S_to_E1" edges="S E_1" /><vehicle id="truck_2" type="truck" route="E0_to_E1" depart="0.0" /><vehicle id="car_6" type="car" route="W1_to_W0" depart="0.0" /><vehicle id="car_7" type="car" route="E0_to_N3" depart="0.0" /><vehicle id="car_10" type="car" route="W1_to_W0" depart="0.1" /><vehicle id="car_25" type="car" route="E0_to_E1" depart="0.33" /><vehicle id="truck_10" type="truck" route="W1_to_W0" depart="0.5" /><vehicle id="car_49" type="car" route="W1_to_W0" depart="0.83" /><vehicle id="car_51" type="car" route="E0_to_E1" depart="0.87" /><vehicle id="car_56" type="car" route="E0_to_E1" depart="0.93" /><vehicle id="car_61" type="car" route="W1_to_W0" depart="1.07" /><vehicle id="bus_56" type="bus" route="E0_to_E1" depart="1.07" /><vehicle id="bus_49" type="bus" route="W1_to_W0" depart="1.33" /><vehicle id="truck_96" type="truck" route="E0_to_E1" depart="1.77" /><vehicle id="truck_56" type="truck" route="E0_to_E1" depart="1.8" /><vehicle id="car_104" type="car" route="S_to_S1" depart="1.97" /><vehicle id="car_146" type="car" route="N_to_N3" depart="3.03" /><vehicle id="car_161" type="car" route="W1_to_W0" depart="3.4" /><vehicle id="bus_10" type="bus" route="W1_to_W0" depart="4.73" /><vehicle id="bus_205" type="bus" route="E0_to_E1" depart="4.77" /><vehicle id="car_206" type="car" route="E0_to_E1" depart="4.77" /><vehicle id="truck_205" type="truck" route="E0_to_E1" depart="4.8" /><vehicle id="truck_49" type="truck" route="W1_to_W0" depart="4.87" /><vehicle id="car_2" type="car" route="E0_to_E1" depart="5.7" /><vehicle id="truck_330" type="truck" route="E0_to_E1" depart="7.83" /><vehicle id="truck_369" type="truck" route="E0_to_E1" depart="8.4" /><vehicle id="car_413" type="car" route="E0_to_E1" depart="9.2" /><vehicle id="truck_414" type="truck" route="E0_to_E1" depart="9.2" /><vehicle id="car_440" type="car" route="E0_to_E1" depart="10.3" /><vehicle id="truck_479" type="truck" route="E0_to_E1" depart="11.1" /><vehicle id="truck_492" type="truck" route="E0_to_E1" depart="11.3" /><vehicle id="bus_492" type="bus" route="E0_to_E1" depart="11.33" /><vehicle id="bus_515" type="bus" route="W1_to_W0" depart="12.63" /><vehicle id="bus_479" type="bus" route="E0_to_E1" depart="13.0" /><vehicle id="car_575" type="car" route="E0_to_N3" depart="13.03" /><vehicle id="car_597" type="car" route="E0_to_E1" depart="13.37" /><vehicle id="truck_607" type="truck" route="E0_to_E1" depart="13.43" /><vehicle id="bus_607" type="bus" route="E0_to_E1" depart="13.73" /><vehicle id="car_714" type="car" route="E0_to_E1" depart="15.33" /><vehicle id="car_784" type="car" route="W1_to_S1" depart="16.93" /><vehicle id="truck_805" type="truck" route="E0_to_E1" depart="17.27" /><vehicle id="bus_807" type="bus" route="E0_to_E1" depart="17.33" /><vehicle id="car_817" type="car" route="E0_to_E1" depart="17.6" /><vehicle id="car_822" type="car" route="E0_to_E1" depart="17.67" /><vehicle id="car_805" type="car" route="E0_to_E1" depart="18.23" /><vehicle id="truck_817" type="truck" route="E0_to_E1" depart="18.57" /><vehicle id="truck_460" type="truck" route="W1_to_S1" depart="18.63" /><vehicle id="bus_460" type="bus" route="W1_to_S1" depart="18.83" /><vehicle id="car_972" type="car" route="E0_to_E1" depart="20.23" /><vehicle id="car_976" type="car" route="W1_to_S1" depart="20.3" /><vehicle id="truck_972" type="truck" route="E0_to_E1" depart="20.4" /><vehicle id="truck_807" type="truck" route="E0_to_E1" depart="21.07" /><vehicle id="car_1060" type="car" route="N_to_E1" depart="21.43" /><vehicle id="car_1216" type="car" route="N_to_N3" depart="23.97" /><vehicle id="car_1220" type="car" route="E0_to_E1" depart="23.97" /><vehicle id="car_1315" type="car" route="S_to_W0" depart="25.5" /><vehicle id="car_1401" type="car" route="W1_to_S1" depart="26.77" /><vehicle id="car_1430" type="car" route="E0_to_E1" depart="27.2" /><vehicle id="car_1450" type="car" route="E0_to_E1" depart="27.37" /><vehicle id="truck_1430" type="truck" route="E0_to_E1" depart="28.4" /><vehicle id="car_1565" type="car" route="E0_to_E1" depart="28.43" /><vehicle id="car_1572" type="car" route="E0_to_E1" depart="28.47" /><vehicle id="truck_1627" type="truck" route="E0_to_E1" depart="28.87" /><vehicle id="truck_1641" type="truck" route="E0_to_E1" depart="28.97" /><vehicle id="car_1691" type="car" route="S_to_W0" depart="29.4" /><vehicle id="car_1783" type="car" route="E0_to_E1" depart="30.43" /><vehicle id="truck_1783" type="truck" route="E0_to_E1" depart="30.57" /><vehicle id="truck_1133" type="truck" route="W1_to_S1" depart="30.9" /><vehicle id="bus_1840" type="bus" route="E0_to_E1" depart="31.17" /><vehicle id="car_1932" type="car" route="W1_to_S1" depart="32.4" /><vehicle id="car_1981" type="car" route="S_to_W0" depart="33.57" /><vehicle id="truck_1932" type="truck" route="W1_to_S1" depart="35.57" /><vehicle id="truck_1401" type="truck" route="W1_to_S1" depart="37.07" /><vehicle id="car_2114" type="car" route="W1_to_S1" depart="37.23" /><vehicle id="truck_2114" type="truck" route="W1_to_S1" depart="37.27" /><vehicle id="bus_2151" type="bus" route="E0_to_E1" depart="38.33" /><vehicle id="car_2162" type="car" route="N_to_W0" depart="38.57" /><vehicle id="car_2198" type="car" route="W1_to_S1" depart="39.4" /><vehicle id="truck_2198" type="truck" route="W1_to_S1" depart="39.6" /><vehicle id="bus_2229" type="bus" route="E0_to_E1" depart="40.13" /><vehicle id="truck_2242" type="truck" route="W1_to_S1" depart="40.4" /><vehicle id="car_2242" type="car" route="W1_to_S1" depart="40.43" /><vehicle id="car_2282" type="car" route="W1_to_S1" depart="41.13" /><vehicle id="truck_1060" type="truck" route="N_to_E1" depart="41.37" /><vehicle id="car_2348" type="car" route="N_to_N3" depart="41.8" /><vehicle id="car_2351" type="car" route="W1_to_S1" depart="41.83" /><vehicle id="car_2362" type="car" route="E0_to_E1" depart="42.23" /><vehicle id="car_2364" type="car" route="W1_to_S1" depart="42.27" /><vehicle id="truck_2362" type="truck" route="E0_to_E1" depart="42.5" /><vehicle id="car_2385" type="car" route="N_to_E1" depart="42.5" /><vehicle id="truck_2351" type="truck" route="W1_to_S1" depart="42.6" /><vehicle id="truck_2435" type="truck" route="E0_to_E1" depart="43.27" /><vehicle id="truck_2447" type="truck" route="W1_to_S1" depart="43.33" /><vehicle id="car_2435" type="car" route="E0_to_E1" depart="43.53" /><vehicle id="car_2482" type="car" route="S_to_W0" depart="43.63" /><vehicle id="truck_2526" type="truck" route="W1_to_S1" depart="44.2" /><vehicle id="truck_1216" type="truck" route="N_to_E1" depart="44.23" /><vehicle id="car_2554" type="car" route="N_to_E1" depart="44.67" /><vehicle id="truck_2554" type="truck" route="N_to_E1" depart="44.7" /><vehicle id="car_2613" type="car" route="W1_to_S1" depart="45.77" /><vehicle id="car_2669" type="car" route="E0_to_E1" depart="46.47" /><vehicle id="truck_2669" type="truck" route="E0_to_E1" depart="46.73" /><vehicle id="car_2698" type="car" route="E0_to_N3" depart="46.83" /><vehicle id="car_2768" type="car" route="S_to_S1" depart="47.97" /><vehicle id="truck_2768" type="truck" route="S_to_S1" depart="48.8" /><vehicle id="bus_2697" type="bus" route="S_to_S1" depart="49.53" /><vehicle id="car_2891" type="car" route="E0_to_E1" depart="49.83" /><vehicle id="car_2917" type="car" route="S_to_W0" depart="50.67" /><vehicle id="truck_2891" type="truck" route="E0_to_E1" depart="50.8" /><vehicle id="truck_2927" type="truck" route="S_to_S1" depart="50.9" /><vehicle id="car_2934" type="car" route="E0_to_E1" depart="51.03" /><vehicle id="car_2992" type="car" route="N_to_N3" depart="52.53" /><vehicle id="truck_3027" type="truck" route="W1_to_W0" depart="53.93" /><vehicle id="car_3088" type="car" route="E0_to_E1" depart="55.07" /><vehicle id="bus_3088" type="bus" route="E0_to_E1" depart="55.1" /><vehicle id="truck_3088" type="truck" route="E0_to_E1" depart="55.13" /><vehicle id="truck_3029" type="truck" route="S_to_W0" depart="55.33" /><vehicle id="truck_3104" type="truck" route="S_to_W0" depart="55.37" /><vehicle id="car_3109" type="car" route="E0_to_E1" depart="55.43" /><vehicle id="bus_3109" type="bus" route="E0_to_E1" depart="55.47" /><vehicle id="bus_3126" type="bus" route="E0_to_E1" depart="55.83" /><vehicle id="car_3126" type="car" route="E0_to_E1" depart="55.9" /><vehicle id="bus_3197" type="bus" route="E0_to_E1" depart="57.73" /><vehicle id="car_3223" type="car" route="E0_to_E1" depart="58.13" /><vehicle id="bus_3248" type="bus" route="E0_to_E1" depart="58.47" /><vehicle id="truck_3262" type="truck" route="E0_to_N3" depart="58.6" /><vehicle id="car_3276" type="car" route="N_to_N3" depart="58.87" /><vehicle id="truck_3248" type="truck" route="E0_to_E1" depart="58.97" /><vehicle id="car_3288" type="car" route="E0_to_E1" depart="59.07" /><vehicle id="truck_3197" type="truck" route="E0_to_E1" depart="60.37" /><vehicle id="truck_1840" type="truck" route="E0_to_E1" depart="60.4" /><vehicle id="truck_3349" type="truck" route="E0_to_E1" depart="60.53" /><vehicle id="truck_3350" type="truck" route="E0_to_E1" depart="60.53" /><vehicle id="truck_3276" type="truck" route="N_to_E1" depart="60.63" /><vehicle id="bus_3350" type="bus" route="E0_to_E1" depart="61.07" /><vehicle id="car_3473" type="car" route="E0_to_N3" depart="62.33" /><vehicle id="car_3507" type="car" route="W1_to_W0" depart="63.03" /><vehicle id="truck_3473" type="truck" route="E0_to_N3" depart="63.6" /><vehicle id="car_3542" type="car" route="W1_to_W0" depart="63.7" /><vehicle id="car_3566" type="car" route="E0_to_E1" depart="63.93" /><vehicle id="truck_3566" type="truck" route="E0_to_E1" depart="64.03" /><vehicle id="bus_3588" type="bus" route="E0_to_E1" depart="64.37" /><vehicle id="car_3656" type="car" route="W1_to_W0" depart="65.23" /><vehicle id="car_3713" type="car" route="N_to_N3" depart="66.4" /><vehicle id="bus_3733" type="bus" route="E0_to_E1" depart="66.77" /><vehicle id="car_3734" type="car" route="E0_to_N3" depart="66.77" /><vehicle id="car_3742" type="car" route="E0_to_E1" depart="67.0" /><vehicle id="truck_3734" type="truck" route="E0_to_N3" depart="67.27" /><vehicle id="truck_3752" type="truck" route="E0_to_N3" depart="67.3" /><vehicle id="car_3769" type="car" route="W1_to_W0" depart="67.67" /><vehicle id="car_3787" type="car" route="W1_to_W0" depart="67.87" /><vehicle id="car_3870" type="car" route="N_to_E1" depart="69.53" /><vehicle id="car_3919" type="car" route="W1_to_W0" depart="70.5" /><vehicle id="car_4011" type="car" route="E0_to_E1" depart="72.53" /><vehicle id="car_4012" type="car" route="E0_to_E1" depart="72.53" /><vehicle id="car_4036" type="car" route="E0_to_N3" depart="72.87" /><vehicle id="bus_4038" type="bus" route="E0_to_E1" depart="72.87" /><vehicle id="car_4049" type="car" route="N_to_E1" depart="73.07" /><vehicle id="car_4060" type="car" route="E0_to_E1" depart="73.37" /><vehicle id="car_4061" type="car" route="E0_to_E1" depart="73.37" /><vehicle id="car_4139" type="car" route="E0_to_E1" depart="74.93" /><vehicle id="car_4038" type="car" route="E0_to_E1" depart="77.17" /><vehicle id="car_4299" type="car" route="E0_to_E1" depart="77.97" /><vehicle id="car_4338" type="car" route="W1_to_W0" depart="78.4" /><vehicle id="car_4350" type="car" route="E0_to_E1" depart="78.5" /><vehicle id="truck_4299" type="truck" route="E0_to_E1" depart="78.57" /><vehicle id="truck_4012" type="truck" route="E0_to_E1" depart="78.63" /><vehicle id="car_4387" type="car" route="E0_to_E1" depart="78.83" /><vehicle id="car_4393" type="car" route="W1_to_S1" depart="78.83" /><vehicle id="truck_4400" type="truck" route="E0_to_N3" depart="78.9" /><vehicle id="truck_4424" type="truck" route="E0_to_N3" depart="79.03" /><vehicle id="car_4436" type="car" route="E0_to_E1" depart="79.13" /><vehicle id="car_4447" type="car" route="E0_to_E1" depart="79.2" /><vehicle id="truck_4036" type="truck" route="E0_to_N3" depart="79.23" /><vehicle id="truck_4455" type="truck" route="E0_to_E1" depart="79.27" /><vehicle id="truck_4456" type="truck" route="E0_to_N3" depart="79.27" /><vehicle id="car_4456" type="car" route="E0_to_N3" depart="79.3" /><vehicle id="car_4479" type="car" route="E0_to_E1" depart="79.43" /><vehicle id="car_4503" type="car" route="W1_to_W0" depart="79.67" /><vehicle id="car_4514" type="car" route="W1_to_S1" depart="79.97" /><vehicle id="truck_4522" type="truck" route="E0_to_E1" depart="80.1" /><vehicle id="car_4522" type="car" route="E0_to_E1" depart="80.13" /><vehicle id="car_4548" type="car" route="E0_to_E1" depart="80.33" /><vehicle id="car_4551" type="car" route="E0_to_N3" depart="80.37" /><vehicle id="car_4556" type="car" route="N_to_N3" depart="80.4" /><vehicle id="truck_4551" type="truck" route="E0_to_N3" depart="81.0" /><vehicle id="car_4681" type="car" route="N_to_E1" depart="81.4" /><vehicle id="truck_4548" type="truck" route="E0_to_E1" depart="81.7" /><vehicle id="car_4734" type="car" route="S_to_S1" depart="81.83" /><vehicle id="truck_4792" type="truck" route="E0_to_E1" depart="82.43" /><vehicle id="car_4793" type="car" route="E0_to_E1" depart="82.5" /><vehicle id="car_4808" type="car" route="W1_to_W0" depart="82.73" /><vehicle id="truck_4793" type="truck" route="E0_to_E1" depart="83.27" /><vehicle id="car_4905" type="car" route="E0_to_N3" depart="83.63" /><vehicle id="truck_4905" type="truck" route="E0_to_N3" depart="83.97" /><vehicle id="truck_4966" type="truck" route="E0_to_N3" depart="84.23" /><vehicle id="truck_4997" type="truck" route="E0_to_N3" depart="84.67" /><vehicle id="car_5087" type="car" route="E0_to_N3" depart="85.47" /><vehicle id="car_5245" type="car" route="N_to_E1" depart="87.1" /><vehicle id="car_5290" type="car" route="E0_to_N3" depart="87.6" /><vehicle id="truck_5308" type="truck" route="E0_to_N3" depart="87.9" /><vehicle id="truck_5311" type="truck" route="E0_to_N3" depart="88.03" /><vehicle id="truck_5318" type="truck" route="E0_to_N3" depart="88.13" /><vehicle id="car_5318" type="car" route="E0_to_N3" depart="88.23" /><vehicle id="truck_5348" type="truck" route="E0_to_N3" depart="88.77" /><vehicle id="car_5365" type="car" route="E0_to_N3" depart="89.1" /><vehicle id="truck_5365" type="truck" route="E0_to_N3" depart="89.13" /><vehicle id="car_5401" type="car" route="W1_to_W0" depart="89.67" /><vehicle id="car_5417" type="car" route="N_to_N3" depart="90.03" /><vehicle id="car_5460" type="car" route="W1_to_W0" depart="90.77" /><vehicle id="truck_5460" type="truck" route="W1_to_W0" depart="91.13" /><vehicle id="truck_5443" type="truck" route="W1_to_W0" depart="91.33" /><vehicle id="truck_5566" type="truck" route="W1_to_W0" depart="92.5" /><vehicle id="truck_5588" type="truck" route="W1_to_W0" depart="93.2" /><vehicle id="car_5588" type="car" route="W1_to_W0" depart="93.27" /><vehicle id="truck_5603" type="truck" route="W1_to_W0" depart="93.53" /><vehicle id="car_5610" type="car" route="E0_to_N3" depart="93.73" /><vehicle id="car_5621" type="car" route="W1_to_W0" depart="94.07" /><vehicle id="truck_5621" type="truck" route="W1_to_W0" depart="94.1" /><vehicle id="truck_5599" type="truck" route="W1_to_W0" depart="94.37" /><vehicle id="truck_5640" type="truck" route="E0_to_N3" depart="94.37" /><vehicle id="car_5658" type="car" route="W1_to_W0" depart="94.7" /><vehicle id="car_5666" type="car" route="W1_to_W0" depart="94.8" /><vehicle id="truck_5666" type="truck" route="W1_to_W0" depart="95.2" /><vehicle id="car_5719" type="car" route="N_to_N3" depart="95.67" /><vehicle id="car_5727" type="car" route="E0_to_N3" depart="95.8" /><vehicle id="car_5781" type="car" route="N_to_N3" depart="96.57" /><vehicle id="car_5795" type="car" route="W1_to_W0" depart="96.8" /><vehicle id="car_5813" type="car" route="W1_to_W0" depart="97.4" /><vehicle id="truck_5819" type="truck" route="E0_to_N3" depart="97.7" /><vehicle id="car_5869" type="car" route="N_to_N3" depart="99.0" /><vehicle id="car_5967" type="car" route="W1_to_W0" depart="101.57" /><vehicle id="truck_5967" type="truck" route="W1_to_W0" depart="101.63" /><vehicle id="truck_6010" type="truck" route="W1_to_W0" depart="102.33" /><vehicle id="car_6010" type="car" route="W1_to_W0" depart="102.4" /><vehicle id="car_6020" type="car" route="N_to_N3" depart="102.53" /><vehicle id="truck_6026" type="truck" route="W1_to_W0" depart="102.63" /><vehicle id="car_6030" type="car" route="W1_to_W0" depart="102.77" /><vehicle id="truck_5719" type="truck" route="N_to_N3" depart="103.0" /><vehicle id="car_6041" type="car" route="E0_to_N3" depart="103.1" /><vehicle id="truck_6045" type="truck" route="N_to_N3" depart="103.17" /><vehicle id="bus_5719" type="bus" route="N_to_E1" depart="103.6" /><vehicle id="car_6065" type="car" route="N_to_E1" depart="103.67" /><vehicle id="car_6086" type="car" route="W1_to_W0" depart="103.97" /><vehicle id="car_6089" type="car" route="N_to_E1" depart="104.03" /><vehicle id="car_6101" type="car" route="N_to_E1" depart="104.4" /><vehicle id="truck_6102" type="truck" route="W1_to_W0" depart="104.53" /><vehicle id="car_6138" type="car" route="W1_to_W0" depart="105.1" /><vehicle id="truck_6147" type="truck" route="W1_to_W0" depart="105.37" /><vehicle id="car_6147" type="car" route="W1_to_W0" depart="105.4" /><vehicle id="truck_6190" type="truck" route="W1_to_W0" depart="105.93" /><vehicle id="car_6190" type="car" route="W1_to_W0" depart="105.97" /><vehicle id="truck_6089" type="truck" route="N_to_E1" depart="106.03" /><vehicle id="car_6214" type="car" route="N_to_N3" depart="106.53" /><vehicle id="car_6229" type="car" route="W1_to_S1" depart="106.93" /><vehicle id="car_6248" type="car" route="W1_to_W0" depart="107.3" /><vehicle id="truck_6248" type="truck" route="W1_to_W0" depart="107.33" /><vehicle id="truck_6314" type="truck" route="W1_to_W0" depart="108.5" /><vehicle id="truck_6325" type="truck" route="W1_to_W0" depart="108.7" /><vehicle id="truck_6404" type="truck" route="W1_to_W0" depart="109.5" /><vehicle id="truck_6438" type="truck" route="W1_to_W0" depart="110.0" /><vehicle id="car_6450" type="car" route="N_to_N3" depart="110.23" /><vehicle id="truck_6453" type="truck" route="W1_to_W0" depart="110.27" /><vehicle id="truck_6462" type="truck" route="W1_to_W0" depart="110.4" /><vehicle id="truck_6488" type="truck" route="W1_to_W0" depart="110.87" /><vehicle id="truck_6495" type="truck" route="W1_to_W0" depart="111.07" /></routes>